First file to show git commit.

New line.
